palmitic_acid_750
 OpenBabel11272516323D

 19 18  0  0  0  0  0  0  0  0999 V2000
    6.6540    4.3730   39.5050 C   0  0  0  0  0
    5.6510    5.5030   39.7680 C   0  0  0  0  0
    4.3470    5.3630   38.9800 C   0  0  0  0  0
    4.0440    6.6370   38.1890 C   0  0  0  0  0
    3.9070    7.8450   39.1170 C   0  0  0  0  0
    3.6900    7.4690   40.5850 C   0  0  0  0  0
    4.8250    7.8400   41.5490 C   0  0  0  0  0
    4.9650    9.3480   41.7760 C   0  0  0  0  0
    5.5420   10.0910   40.5680 C   0  0  0  0  0
    5.9960   11.5080   40.8840 C   0  0  0  0  0
    7.2920    4.3550   38.1110 C   0  0  0  0  0
    7.5890    5.7510   37.5550 C   0  0  0  0  0
    9.0740    6.0930   37.6770 C   0  0  0  0  0
    9.5460    6.2910   39.1230 C   0  0  0  0  0
    8.6290    7.1670   39.9760 C   0  0  0  0  0
    8.6630    8.6340   39.6220 C   0  0  0  0  0
    8.7360    9.0590   38.4750 O   0  0  0  0  0
    8.6400    9.4400   40.7110 O   0  0  0  0  0
    8.6430   10.3890   40.4670 H   0  0  0  0  0
 11  1  1  0  0  0
  1  2  1  0  0  0
  3  2  1  0  0  0
  4  3  1  0  0  0
  4  5  1  0  0  0
  5  6  1  0  0  0
  6  7  1  0  0  0
  7  8  1  0  0  0
  9  8  1  0  0  0
  9 10  1  0  0  0
 12 11  1  0  0  0
 12 13  1  0  0  0
 13 14  1  0  0  0
 14 15  1  0  0  0
 16 15  1  0  0  0
 17 16  2  0  0  0
 16 18  1  0  0  0
 19 18  1  0  0  0
M  END
>  <Binding_Energy>
-2.84

$$$$
