oleic_acid_249
 OpenBabel12122521113D

 21 20  0  0  0  0  0  0  0  0999 V2000
    8.7230   11.6250   41.9940 C   0  0  0  0  0
   10.0150   11.5140   42.8080 C   0  0  0  0  0
    9.9450   12.2560   44.1470 C   0  0  0  0  0
   11.3240   12.7680   44.5690 C   0  0  0  0  0
   12.2870   12.8190   43.3820 C   0  0  0  0  0
   13.6510   12.2270   43.7490 C   0  0  0  0  0
   13.5640   11.2350   44.9090 C   0  0  0  0  0
   13.7430    9.8010   44.4760 C   0  0  0  0  0
   13.0380    8.8560   44.7990 O   0  0  0  0  0
   14.8400    9.6860   43.6830 O   0  0  0  0  0
   15.2190    8.7820   43.7150 H   0  0  0  0  0
    8.4110   13.0370   41.5850 C   0  0  0  0  0
    7.3600   13.4760   40.8770 C   0  0  0  0  0
    6.2390   12.6650   40.2920 C   0  0  0  0  0
    5.6900   11.6130   41.2640 C   0  0  0  0  0
    5.6270   10.1810   40.7200 C   0  0  0  0  0
    4.2280    9.5650   40.8030 C   0  0  0  0  0
    3.9410    8.5580   39.6850 C   0  0  0  0  0
    3.4880    7.1680   40.1400 C   0  0  0  0  0
    3.6420    6.0470   39.1080 C   0  0  0  0  0
    5.0670    5.8660   38.6130 C   0  0  0  0  0
 12  1  1  0  0  0
  1  2  1  0  0  0
  2  3  1  0  0  0
  3  4  1  0  0  0
  5  4  1  0  0  0
  5  6  1  0  0  0
  6  7  1  0  0  0
  8  7  1  0  0  0
 10  8  1  0  0  0
  8  9  2  0  0  0
 10 11  1  0  0  0
 13 12  2  0  0  0
 14 13  1  0  0  0
 14 15  1  0  0  0
 16 15  1  0  0  0
 16 17  1  0  0  0
 18 17  1  0  0  0
 18 19  2  0  0  0
 20 19  1  0  0  0
 21 20  1  0  0  0
M  END
>  <Binding_Energy>
-6.8

$$$$
