Eicosapentanoic_acid_1134
 OpenBabel12122520573D

 23 22  0  0  0  0  0  0  0  0999 V2000
    8.3350   12.3090   42.3890 C   0  0  0  0  0
    7.7920   13.5200   42.1890 C   0  0  0  0  0
    6.9130   13.8500   41.0190 C   0  0  0  0  0
    6.2330   12.6250   40.4860 C   0  0  0  0  0
    5.0920   12.1250   40.9870 C   0  0  0  0  0
    4.4250   10.8910   40.4550 C   0  0  0  0  0
    5.2360    9.6610   40.7440 C   0  0  0  0  0
    6.2480    9.1630   40.0160 C   0  0  0  0  0
    7.0600    7.9330   40.3030 C   0  0  0  0  0
    6.2010    6.7030   40.3290 C   0  0  0  0  0
    5.2050    6.4690   39.4610 C   0  0  0  0  0
    4.3560    5.2340   39.4760 C   0  0  0  0  0
    2.9560    5.5280   39.9880 C   0  0  0  0  0
    9.2390   11.9750   43.5390 C   0  0  0  0  0
   10.6640   12.3200   43.2220 C   0  0  0  0  0
   11.4710   12.9980   44.0510 C   0  0  0  0  0
   12.8840   13.3730   43.7100 C   0  0  0  0  0
   13.9020   12.3090   44.1390 C   0  0  0  0  0
   13.3340   11.2070   45.0330 C   0  0  0  0  0
   13.6010    9.8230   44.5020 C   0  0  0  0  0
   12.7930    8.9060   44.5140 O   0  0  0  0  0
   14.8530    9.7250   43.9930 O   0  0  0  0  0
   14.8460    9.4560   43.0500 H   0  0  0  0  0
  2  1  2  0  0  0
  1 14  1  0  0  0
  3  2  1  0  0  0
  4  3  1  0  0  0
  4  5  2  0  0  0
  6  5  1  0  0  0
  6  7  1  0  0  0
  8  7  2  0  0  0
  8  9  1  0  0  0
  9 10  1  0  0  0
 11 10  2  0  0  0
 11 12  1  0  0  0
 12 13  1  0  0  0
 15 14  1  0  0  0
 15 16  2  0  0  0
 17 16  1  0  0  0
 17 18  1  0  0  0
 18 19  1  0  0  0
 20 19  1  0  0  0
 22 20  1  0  0  0
 20 21  2  0  0  0
 23 22  1  0  0  0
M  END
>  <Binding_Energy>
-7.02

$$$$
