linoleic_acid_1150
 OpenBabel12122520443D

 21 20  0  0  0  0  0  0  0  0999 V2000
    6.8250   11.3020   40.6680 C   0  0  0  0  0
    8.3210   11.3680   40.9920 C   0  0  0  0  0
    8.7430   12.6860   41.6490 C   0  0  0  0  0
    9.2030   12.5200   43.1020 C   0  0  0  0  0
   10.3240   11.4910   43.2690 C   0  0  0  0  0
   11.6990   12.1700   43.2900 C   0  0  0  0  0
   12.2320   12.3610   44.7100 C   0  0  0  0  0
   13.6900   11.9970   44.8490 C   0  0  0  0  0
   14.1320   10.9160   45.2120 O   0  0  0  0  0
   14.4710   13.0420   44.4760 O   0  0  0  0  0
   14.5600   13.7060   45.1930 H   0  0  0  0  0
    6.0110   10.6710   41.7600 C   0  0  0  0  0
    5.4450    9.4580   41.6620 C   0  0  0  0  0
    5.5570    8.5820   40.4500 C   0  0  0  0  0
    4.2050    8.2350   39.8950 C   0  0  0  0  0
    4.0180    7.3690   38.8860 C   0  0  0  0  0
    5.0720    6.6030   38.1320 C   0  0  0  0  0
    5.7370    5.4340   38.8700 C   0  0  0  0  0
    7.1030    5.1050   38.2620 C   0  0  0  0  0
    7.7160    6.2710   37.4840 C   0  0  0  0  0
    8.5100    7.2320   38.3550 C   0  0  0  0  0
  1  2  1  0  0  0
  1 12  1  0  0  0
  2  3  1  0  0  0
  3  4  1  0  0  0
  4  5  1  0  0  0
  5  6  1  0  0  0
  6  7  1  0  0  0
  7  8  1  0  0  0
 10  8  1  0  0  0
  8  9  2  0  0  0
 10 11  1  0  0  0
 13 12  2  0  0  0
 14 13  1  0  0  0
 15 14  1  0  0  0
 16 15  2  0  0  0
 17 16  1  0  0  0
 17 18  1  0  0  0
 19 18  1  0  0  0
 20 19  1  0  0  0
 20 21  1  0  0  0
M  END
>  <Binding_Energy>
-6.49

$$$$
