alpha_linolenicacid_987
 OpenBabel12122520223D

 21 20  0  0  0  0  0  0  0  0999 V2000
    8.7430   11.9400   41.4680 C   0  0  0  0  0
    9.0630   11.2950   42.8230 C   0  0  0  0  0
    9.6670   12.2850   43.8250 C   0  0  0  0  0
   10.9630   11.7810   44.4680 C   0  0  0  0  0
   11.5290   10.5320   43.7860 C   0  0  0  0  0
   13.0080   10.3340   44.1350 C   0  0  0  0  0
   13.5720   11.4870   44.9600 C   0  0  0  0  0
   14.0300   12.6400   44.1020 C   0  0  0  0  0
   14.8540   13.4730   44.4590 O   0  0  0  0  0
   13.4340   12.6540   42.8840 O   0  0  0  0  0
   13.8710   13.2840   42.2730 H   0  0  0  0  0
    7.9130   13.1960   41.4540 C   0  0  0  0  0
    6.7990   13.4290   40.7430 C   0  0  0  0  0
    6.1830   12.4270   39.8100 C   0  0  0  0  0
    4.8620   11.9360   40.3260 C   0  0  0  0  0
    4.7250   10.8750   41.1370 C   0  0  0  0  0
    5.8770   10.0480   41.6280 C   0  0  0  0  0
    5.8090    9.8330   43.1120 C   0  0  0  0  0
    5.6250    8.6350   43.6850 C   0  0  0  0  0
    5.4620    7.3580   42.9150 C   0  0  0  0  0
    3.9950    7.0000   42.7360 C   0  0  0  0  0
 12  1  1  0  0  0
  1  2  1  0  0  0
  2  3  1  0  0  0
  3  4  1  0  0  0
  5  4  1  0  0  0
  5  6  1  0  0  0
  6  7  1  0  0  0
  8  7  1  0  0  0
 10  8  1  0  0  0
  8  9  2  0  0  0
 11 10  1  0  0  0
 13 12  2  0  0  0
 14 13  1  0  0  0
 14 15  1  0  0  0
 15 16  2  0  0  0
 16 17  1  0  0  0
 17 18  1  0  0  0
 18 19  2  0  0  0
 20 19  1  0  0  0
 21 20  1  0  0  0
M  END
>  <Binding_Energy>
-6.69

$$$$
