arachidonic_acid_598
 OpenBabel12122519533D

 23 22  0  0  0  0  0  0  0  0999 V2000
    6.1320   11.8260   41.6320 C   0  0  0  0  0
    5.7220   10.7900   40.8830 C   0  0  0  0  0
    6.2150    9.3730   40.9400 C   0  0  0  0  0
    5.2120    8.4780   41.6070 C   0  0  0  0  0
    4.1340    7.9740   40.9860 C   0  0  0  0  0
    3.8000    8.2460   39.5490 C   0  0  0  0  0
    3.6540    6.9700   38.7730 C   0  0  0  0  0
    4.6900    6.2670   38.2900 C   0  0  0  0  0
    6.1260    6.6700   38.4670 C   0  0  0  0  0
    7.1130    5.7340   37.7620 C   0  0  0  0  0
    8.5730    6.1750   37.8960 C   0  0  0  0  0
    8.6720    7.5880   38.4730 C   0  0  0  0  0
    8.8680    8.6250   37.3770 C   0  0  0  0  0
    7.1930   11.8180   42.6930 C   0  0  0  0  0
    8.4750   11.2200   42.1900 C   0  0  0  0  0
    9.6660   11.4310   42.7720 C   0  0  0  0  0
    9.9650   12.2650   43.9880 C   0  0  0  0  0
   11.4160   12.6800   44.2530 C   0  0  0  0  0
   12.4330   11.7220   43.6370 C   0  0  0  0  0
   13.7230   11.7400   44.4160 C   0  0  0  0  0
   14.0740   10.8500   45.1800 O   0  0  0  0  0
   14.4520   12.8610   44.1870 O   0  0  0  0  0
   14.4900   13.0830   43.2330 H   0  0  0  0  0
  2  1  2  0  0  0
  1 14  1  0  0  0
  2  3  1  0  0  0
  3  4  1  0  0  0
  5  4  2  0  0  0
  6  5  1  0  0  0
  7  6  1  0  0  0
  8  7  2  0  0  0
  8  9  1  0  0  0
 10  9  1  0  0  0
 10 11  1  0  0  0
 11 12  1  0  0  0
 13 12  1  0  0  0
 15 14  1  0  0  0
 15 16  2  0  0  0
 16 17  1  0  0  0
 17 18  1  0  0  0
 19 18  1  0  0  0
 19 20  1  0  0  0
 22 20  1  0  0  0
 20 21  2  0  0  0
 23 22  1  0  0  0
M  END
>  <Binding_Energy>
-7.24

$$$$
