Docosahexanoic_acid_817
 OpenBabel12122515223D

 25 24  0  0  0  0  0  0  0  0999 V2000
    7.7470   13.7580   40.8420 C   0  0  0  0  0
    6.5900   13.4470   40.2390 C   0  0  0  0  0
    8.5090   12.8120   41.7230 C   0  0  0  0  0
    7.7850   12.5610   43.0140 C   0  0  0  0  0
    7.9260   11.4390   43.7360 C   0  0  0  0  0
    8.8220   10.3030   43.3400 C   0  0  0  0  0
   10.0260   10.7840   42.5840 C   0  0  0  0  0
   11.1220   11.3640   43.0970 C   0  0  0  0  0
   11.3940   11.6580   44.5460 C   0  0  0  0  0
   12.4390   12.7550   44.7270 C   0  0  0  0  0
   13.8430   12.2130   44.8180 C   0  0  0  0  0
   14.1140   11.0560   45.1150 O   0  0  0  0  0
   14.7820   13.1470   44.5260 O   0  0  0  0  0
   14.7600   13.8990   45.1560 H   0  0  0  0  0
    5.9090   12.1170   40.3670 C   0  0  0  0  0
    6.7890   10.9910   39.9140 C   0  0  0  0  0
    6.7130    9.6960   40.2580 C   0  0  0  0  0
    5.7230    9.0560   41.1860 C   0  0  0  0  0
    4.3380    9.0740   40.6050 C   0  0  0  0  0
    3.8340    8.2650   39.6590 C   0  0  0  0  0
    4.5230    7.1290   38.9620 C   0  0  0  0  0
    3.6080    5.9500   38.8050 C   0  0  0  0  0
    3.1790    5.1950   39.8270 C   0  0  0  0  0
    3.5620    5.4370   41.2570 C   0  0  0  0  0
    4.9110    4.8160   41.5840 C   0  0  0  0  0
  2  1  2  0  0  0
  1  3  1  0  0  0
  2 15  1  0  0  0
  3  4  1  0  0  0
  4  5  2  0  0  0
  6  5  1  0  0  0
  7  6  1  0  0  0
  7  8  2  0  0  0
  8  9  1  0  0  0
  9 10  1  0  0  0
 10 11  1  0  0  0
 13 11  1  0  0  0
 11 12  2  0  0  0
 13 14  1  0  0  0
 16 15  1  0  0  0
 16 17  2  0  0  0
 17 18  1  0  0  0
 19 18  1  0  0  0
 20 19  2  0  0  0
 21 20  1  0  0  0
 22 21  1  0  0  0
 22 23  2  0  0  0
 23 24  1  0  0  0
 24 25  1  0  0  0
M  END
>  <Binding_Energy>
-8.1

$$$$
