@<TRIPOS>MOLECULE
Docosahexanoic_acid_817
56 55 1 0 0
SMALL
NO_CHARGES


@<TRIPOS>ATOM
      1 C1          7.7470   13.7580   40.8420 C.2       1 UNL    0.0000
      2 C2          6.5900   13.4470   40.2390 C.2       1 UNL    0.0000
      3 C3          8.5090   12.8120   41.7230 C.3       1 UNL    0.0000
      4 C4          7.7850   12.5610   43.0140 C.2       1 UNL    0.0000
      5 C5          7.9260   11.4390   43.7360 C.2       1 UNL    0.0000
      6 C6          8.8220   10.3030   43.3400 C.3       1 UNL    0.0000
      7 C7         10.0260   10.7840   42.5840 C.2       1 UNL    0.0000
      8 C8         11.1220   11.3640   43.0970 C.2       1 UNL    0.0000
      9 C9         11.3940   11.6580   44.5460 C.3       1 UNL    0.0000
     10 C10        12.4390   12.7550   44.7270 C.3       1 UNL    0.0000
     11 C11        13.8430   12.2130   44.8180 C.2       1 UNL    0.0000
     12 O1         14.1140   11.0560   45.1150 O.2       1 UNL    0.0000
     13 O2         14.7820   13.1470   44.5260 O.3       1 UNL    0.0000
     14 H1         14.7600   13.8990   45.1560 H         1 UNL    0.0000
     15 C12         5.9090   12.1170   40.3670 C.3       1 UNL    0.0000
     16 C13         6.7890   10.9910   39.9140 C.2       1 UNL    0.0000
     17 C14         6.7130    9.6960   40.2580 C.2       1 UNL    0.0000
     18 C15         5.7230    9.0560   41.1860 C.3       1 UNL    0.0000
     19 C16         4.3380    9.0740   40.6050 C.2       1 UNL    0.0000
     20 C17         3.8340    8.2650   39.6590 C.2       1 UNL    0.0000
     21 C18         4.5230    7.1290   38.9620 C.3       1 UNL    0.0000
     22 C19         3.6080    5.9500   38.8050 C.2       1 UNL    0.0000
     23 C20         3.1790    5.1950   39.8270 C.2       1 UNL    0.0000
     24 C21         3.5620    5.4370   41.2570 C.3       1 UNL    0.0000
     25 C22         4.9110    4.8160   41.5840 C.3       1 UNL    0.0000
     26 HC          8.1536   14.7461   40.6844 H         1 UNL    0.0000
     27 HC1         6.1202   14.2002   39.6239 H         1 UNL    0.0000
     28 HC2         8.6373   11.8650   41.1987 H         1 UNL    0.0000
     29 HC3         9.4894   13.2364   41.9396 H         1 UNL    0.0000
     30 HC4         7.1149   13.3243   43.3811 H         1 UNL    0.0000
     31 HC5         7.3631   11.3487   44.6533 H         1 UNL    0.0000
     32 HC6         9.1537    9.7846   44.2396 H         1 UNL    0.0000
     33 HC7         8.2618    9.6084   42.7141 H         1 UNL    0.0000
     34 HC8        10.0085   10.6489   41.5126 H         1 UNL    0.0000
     35 HC9        11.8905   11.6500   42.3941 H         1 UNL    0.0000
     36 HC10       11.7538   10.7483   45.0268 H         1 UNL    0.0000
     37 HC11       10.4659   11.9694   45.0252 H         1 UNL    0.0000
     38 HC12       12.3821   13.4342   43.8763 H         1 UNL    0.0000
     39 HC13       12.2147   13.3100   45.6379 H         1 UNL    0.0000
     40 HC14        5.6425   11.9571   41.4117 H         1 UNL    0.0000
     41 HC15        5.0004   12.1230   39.7649 H         1 UNL    0.0000
     42 HC16        7.5802   11.2539   39.2275 H         1 UNL    0.0000
     43 HC17        7.4484    9.0397   39.8164 H         1 UNL    0.0000
     44 HC18        6.0199    8.0223   41.3633 H         1 UNL    0.0000
     45 HC19        5.7205    9.5950   42.1334 H         1 UNL    0.0000
     46 HC20        3.6682    9.8266   40.9941 H         1 UNL    0.0000
     47 HC21        2.8121    8.4545   39.3653 H         1 UNL    0.0000
     48 HC22        4.8460    7.4615   37.9755 H         1 UNL    0.0000
     49 HC23        5.3959    6.8298   39.5423 H         1 UNL    0.0000
     50 HC24        3.2752    5.6943   37.8099 H         1 UNL    0.0000
     51 HC25        2.5213    4.3668   39.6083 H         1 UNL    0.0000
     52 HC26        3.6146    6.5115   41.4327 H         1 UNL    0.0000
     53 HC27        2.8023    5.0051   41.9085 H         1 UNL    0.0000
     54 HC28        5.1576    5.0103   42.6278 H         1 UNL    0.0000
     55 HC29        4.8657    3.7400   41.4159 H         1 UNL    0.0000
     56 HC30        5.6768    5.2520   40.9425 H         1 UNL    0.0000
@<TRIPOS>BOND
     1    2    1 2
     2    1    3 1
     3    2   15 1
     4    3    4 1
     5    4    5 2
     6    6    5 1
     7    7    6 1
     8    7    8 2
     9    8    9 1
    10    9   10 1
    11   10   11 1
    12   13   11 1
    13   11   12 2
    14   13   14 1
    15   16   15 1
    16   16   17 2
    17   17   18 1
    18   19   18 1
    19   20   19 2
    20   21   20 1
    21   22   21 1
    22   22   23 2
    23   23   24 1
    24   24   25 1
    25   26    1 1
    26   27    2 1
    27   28    3 1
    28   29    3 1
    29   30    4 1
    30   31    5 1
    31   32    6 1
    32   33    6 1
    33   34    7 1
    34   35    8 1
    35   36    9 1
    36   37    9 1
    37   38   10 1
    38   39   10 1
    39   40   15 1
    40   41   15 1
    41   42   16 1
    42   43   17 1
    43   44   18 1
    44   45   18 1
    45   46   19 1
    46   47   20 1
    47   48   21 1
    48   49   21 1
    49   50   22 1
    50   51   23 1
    51   52   24 1
    52   53   24 1
    53   54   25 1
    54   55   25 1
    55   56   25 1
@<TRIPOS>SUBSTRUCTURE
     1 UNL     1 RESIDUE           4 A     UNL     0 ROOT
